! === module MOM_domains ===
REENTRANT_X = False             !   [Boolean] default = True
                                ! If true, the domain is zonally reentrant.
NIGLOBAL = 140                  !
                                ! The total number of thickness grid points in the x-direction in the physical
                                ! domain. With STATIC_MEMORY_ this is set in MOM_memory.h at compile time.
NJGLOBAL = 249                  !
                                ! The total number of thickness grid points in the y-direction in the physical
                                ! domain. With STATIC_MEMORY_ this is set in MOM_memory.h at compile time.
AUTO_MASKTABLE = False
LAYOUT = 6,8   
                                ! The processor layout that was actually used.
IO_LAYOUT = 1, 1                ! default = 1
                                ! The processor layout to be used, or 0,0 to automatically set the io_layout to
                                ! be the same as the layout.
! === Added with RM6 ===
